Version 4.1
SHEET 1 912 680
WIRE 336 32 288 32
WIRE 464 32 416 32
WIRE 608 32 464 32
WIRE 768 48 672 48
WIRE 608 64 576 64
WIRE 288 96 288 32
WIRE 464 96 464 32
WIRE 576 96 576 64
WIRE 768 96 768 48
WIRE 288 224 288 176
WIRE 464 224 464 176
WIRE 464 224 288 224
WIRE 576 224 576 176
WIRE 576 224 464 224
WIRE 768 224 768 176
WIRE 768 224 576 224
WIRE 288 240 288 224
FLAG -32 208 0
FLAG 80 208 0
FLAG -32 128 -Vcc
FLAG 80 128 +Vcc
FLAG 288 240 0
FLAG 640 16 +Vcc
FLAG 640 80 -Vcc
SYMBOL voltage -32 112 R0
WINDOW 123 0 0 Left 0
WINDOW 39 0 0 Left 0
SYMATTR InstName V-
SYMATTR Value 0
SYMBOL voltage 80 112 R0
WINDOW 123 0 0 Left 0
WINDOW 39 0 0 Left 0
SYMATTR InstName V+
SYMATTR Value 5
SYMBOL voltage 288 80 R0
WINDOW 123 0 0 Left 0
WINDOW 39 0 0 Left 0
SYMATTR InstName Vref
SYMATTR Value 5
SYMBOL res 448 80 R0
SYMATTR InstName R1
SYMATTR Value 2k
SYMBOL res 432 16 R90
WINDOW 0 0 56 VBottom 2
WINDOW 3 32 56 VTop 2
SYMATTR InstName R2
SYMATTR Value 3k
SYMBOL Comparators\\LT1716 640 48 R0
SYMATTR InstName U1
SYMBOL voltage 576 80 R0
WINDOW 0 22 95 Left 2
WINDOW 3 -102 183 Left 2
WINDOW 123 0 0 Left 0
WINDOW 39 0 0 Left 0
SYMATTR InstName Vin
SYMATTR Value PULSE(0 5 0 1u 1u 1 2 0)
SYMBOL res 752 80 R0
SYMATTR InstName R3
SYMATTR Value 1k
TEXT -64 264 Left 2 !.tran 3
